<?xml version="1.0" encoding="UTF-8"?>

<!-- generated on 2026-03-01 10:15:19 by Eclipse SUMO netconvert Version 1.20.0
<configuration xmlns:xsi="http://www.w3.org/2001/XMLSchema-instance" xsi:noNamespaceSchemaLocation="http://sumo.dlr.de/xsd/netconvertConfiguration.xsd">

    <input>
        <node-files value="t_junction.nod.xml"/>
        <edge-files value="t_junction.edg.xml"/>
    </input>

    <output>
        <output-file value="t_junction.net.xml"/>
    </output>

</configuration>
-->

<net version="1.20" junctionCornerDetail="5" limitTurnSpeed="5.50" xmlns:xsi="http://www.w3.org/2001/XMLSchema-instance" xsi:noNamespaceSchemaLocation="http://sumo.dlr.de/xsd/net_file.xsd">

    <location netOffset="0.00,0.00" convBoundary="0.00,0.00,100.00,50.00" origBoundary="0.00,0.00,100.00,50.00" projParameter="!"/>

    <edge id=":J0_0" function="internal">
        <lane id=":J0_0_0" index="0" speed="3.65" length="4.67" shape="-0.00,51.60 -1.20,50.80 -1.60,50.00 -1.20,49.20 -0.00,48.40"/>
    </edge>
    <edge id=":J1_0" function="internal">
        <lane id=":J1_0_0" index="0" speed="13.90" length="14.40" shape="57.20,51.60 42.80,51.60"/>
    </edge>
    <edge id=":J1_1" function="internal">
        <lane id=":J1_1_0" index="0" speed="8.00" length="4.07" shape="57.20,51.60 53.35,51.05 53.20,50.96"/>
    </edge>
    <edge id=":J1_2" function="internal">
        <lane id=":J1_2_0" index="0" speed="3.65" length="1.44" shape="57.20,51.60 56.00,50.80"/>
    </edge>
    <edge id=":J1_9" function="internal">
        <lane id=":J1_9_0" index="0" speed="8.00" length="10.13" shape="53.20,50.96 50.60,49.40 48.95,46.65 48.40,42.80"/>
    </edge>
    <edge id=":J1_10" function="internal">
        <lane id=":J1_10_0" index="0" speed="3.65" length="3.23" shape="56.00,50.80 55.60,50.00 56.00,49.20 57.20,48.40"/>
    </edge>
    <edge id=":J1_3" function="internal">
        <lane id=":J1_3_0" index="0" speed="6.51" length="9.03" shape="51.60,42.80 51.95,45.25 53.00,47.00 54.75,48.05 57.20,48.40"/>
    </edge>
    <edge id=":J1_4" function="internal">
        <lane id=":J1_4_0" index="0" speed="8.00" length="14.19" shape="51.60,42.80 51.05,46.65 49.40,49.40 46.65,51.05 42.80,51.60"/>
    </edge>
    <edge id=":J1_5" function="internal">
        <lane id=":J1_5_0" index="0" speed="3.65" length="1.44" shape="51.60,42.80 50.80,44.00"/>
    </edge>
    <edge id=":J1_11" function="internal">
        <lane id=":J1_11_0" index="0" speed="3.65" length="3.23" shape="50.80,44.00 50.00,44.40 49.20,44.00 48.40,42.80"/>
    </edge>
    <edge id=":J1_6" function="internal">
        <lane id=":J1_6_0" index="0" speed="6.51" length="9.03" shape="42.80,48.40 45.25,48.05 47.00,47.00 48.05,45.25 48.40,42.80"/>
    </edge>
    <edge id=":J1_7" function="internal">
        <lane id=":J1_7_0" index="0" speed="13.90" length="14.40" shape="42.80,48.40 57.20,48.40"/>
    </edge>
    <edge id=":J1_8" function="internal">
        <lane id=":J1_8_0" index="0" speed="3.65" length="1.44" shape="42.80,48.40 44.00,49.20"/>
    </edge>
    <edge id=":J1_12" function="internal">
        <lane id=":J1_12_0" index="0" speed="3.65" length="3.23" shape="44.00,49.20 44.40,50.00 44.00,50.80 42.80,51.60"/>
    </edge>
    <edge id=":J2_0" function="internal">
        <lane id=":J2_0_0" index="0" speed="3.65" length="4.67" shape="100.00,48.40 101.20,49.20 101.60,50.00 101.20,50.80 100.00,51.60"/>
    </edge>
    <edge id=":J3_0" function="internal">
        <lane id=":J3_0_0" index="0" speed="3.65" length="4.67" shape="48.40,-0.00 49.20,-1.20 50.00,-1.60 50.80,-1.20 51.60,-0.00"/>
    </edge>

    <edge id="e0" from="J0" to="J1" priority="1">
        <lane id="e0_0" index="0" speed="13.90" length="42.80" shape="-0.00,48.40 42.80,48.40"/>
    </edge>
    <edge id="e1" from="J2" to="J1" priority="1">
        <lane id="e1_0" index="0" speed="13.90" length="42.80" shape="100.00,51.60 57.20,51.60"/>
    </edge>
    <edge id="e2" from="J3" to="J1" priority="1">
        <lane id="e2_0" index="0" speed="13.90" length="42.80" shape="51.60,-0.00 51.60,42.80"/>
    </edge>
    <edge id="e3" from="J1" to="J0" priority="1">
        <lane id="e3_0" index="0" speed="13.90" length="42.80" shape="42.80,51.60 -0.00,51.60"/>
    </edge>
    <edge id="e4" from="J1" to="J2" priority="1">
        <lane id="e4_0" index="0" speed="13.90" length="42.80" shape="57.20,48.40 100.00,48.40"/>
    </edge>
    <edge id="e5" from="J1" to="J3" priority="1">
        <lane id="e5_0" index="0" speed="13.90" length="42.80" shape="48.40,42.80 48.40,-0.00"/>
    </edge>

    <tlLogic id="J1" type="static" programID="0" offset="0">
        <phase duration="42" state="GggrrrGGg"/>
        <phase duration="3"  state="yyyrrrGyy"/>
        <phase duration="42" state="rrrGGgGrr"/>
        <phase duration="3"  state="rrryyyGrr"/>
    </tlLogic>

    <junction id="J0" type="priority" x="0.00" y="50.00" incLanes="e3_0" intLanes=":J0_0_0" shape="-0.00,50.00 -0.00,53.20 -0.00,50.00">
        <request index="0" response="0" foes="0" cont="0"/>
    </junction>
    <junction id="J1" type="traffic_light" x="50.00" y="50.00" incLanes="e1_0 e2_0 e0_0" intLanes=":J1_0_0 :J1_9_0 :J1_10_0 :J1_3_0 :J1_4_0 :J1_11_0 :J1_6_0 :J1_7_0 :J1_12_0" shape="57.20,53.20 57.20,46.80 54.98,46.36 54.20,45.80 53.64,45.02 53.31,44.02 53.20,42.80 46.80,42.80 46.36,45.02 45.80,45.80 45.02,46.36 44.02,46.69 42.80,46.80 42.80,53.20">
        <request index="0" response="000000000" foes="100010000" cont="0"/>
        <request index="1" response="011000000" foes="011110000" cont="1"/>
        <request index="2" response="010001000" foes="010001000" cont="1"/>
        <request index="3" response="010000000" foes="010000100" cont="0"/>
        <request index="4" response="010000011" foes="110000011" cont="0"/>
        <request index="5" response="001000010" foes="001000010" cont="1"/>
        <request index="6" response="000000000" foes="000100010" cont="0"/>
        <request index="7" response="000000000" foes="000011110" cont="0"/>
        <request index="8" response="000010001" foes="000010001" cont="1"/>
    </junction>
    <junction id="J2" type="priority" x="100.00" y="50.00" incLanes="e4_0" intLanes=":J2_0_0" shape="100.00,50.00 100.00,46.80 100.00,50.00">
        <request index="0" response="0" foes="0" cont="0"/>
    </junction>
    <junction id="J3" type="priority" x="50.00" y="0.00" incLanes="e5_0" intLanes=":J3_0_0" shape="50.00,-0.00 46.80,-0.00 50.00,-0.00">
        <request index="0" response="0" foes="0" cont="0"/>
    </junction>

    <junction id=":J1_9_0" type="internal" x="53.20" y="50.96" incLanes=":J1_1_0 e0_0" intLanes=":J1_4_0 :J1_5_0 :J1_6_0 :J1_7_0"/>
    <junction id=":J1_10_0" type="internal" x="56.00" y="50.80" incLanes=":J1_2_0 e0_0 e2_0" intLanes=":J1_3_0 :J1_7_0"/>
    <junction id=":J1_11_0" type="internal" x="50.80" y="44.00" incLanes=":J1_5_0 e0_0 e1_0" intLanes=":J1_1_0 :J1_6_0"/>
    <junction id=":J1_12_0" type="internal" x="44.00" y="49.20" incLanes=":J1_8_0 e1_0 e2_0" intLanes=":J1_0_0 :J1_4_0"/>

    <connection from="e0" to="e5" fromLane="0" toLane="0" via=":J1_6_0" tl="J1" linkIndex="6" dir="r" state="O"/>
    <connection from="e0" to="e4" fromLane="0" toLane="0" via=":J1_7_0" tl="J1" linkIndex="7" dir="s" state="O"/>
    <connection from="e0" to="e3" fromLane="0" toLane="0" via=":J1_8_0" tl="J1" linkIndex="8" dir="t" state="o"/>
    <connection from="e1" to="e3" fromLane="0" toLane="0" via=":J1_0_0" tl="J1" linkIndex="0" dir="s" state="O"/>
    <connection from="e1" to="e5" fromLane="0" toLane="0" via=":J1_1_0" tl="J1" linkIndex="1" dir="l" state="o"/>
    <connection from="e1" to="e4" fromLane="0" toLane="0" via=":J1_2_0" tl="J1" linkIndex="2" dir="t" state="o"/>
    <connection from="e2" to="e4" fromLane="0" toLane="0" via=":J1_3_0" tl="J1" linkIndex="3" dir="r" state="o"/>
    <connection from="e2" to="e3" fromLane="0" toLane="0" via=":J1_4_0" tl="J1" linkIndex="4" dir="l" state="o"/>
    <connection from="e2" to="e5" fromLane="0" toLane="0" via=":J1_5_0" tl="J1" linkIndex="5" dir="t" state="o"/>
    <connection from="e3" to="e0" fromLane="0" toLane="0" via=":J0_0_0" dir="t" state="M"/>
    <connection from="e4" to="e1" fromLane="0" toLane="0" via=":J2_0_0" dir="t" state="M"/>
    <connection from="e5" to="e2" fromLane="0" toLane="0" via=":J3_0_0" dir="t" state="M"/>

    <connection from=":J0_0" to="e0" fromLane="0" toLane="0" dir="t" state="M"/>
    <connection from=":J1_0" to="e3" fromLane="0" toLane="0" dir="s" state="M"/>
    <connection from=":J1_1" to="e5" fromLane="0" toLane="0" via=":J1_9_0" dir="l" state="m"/>
    <connection from=":J1_9" to="e5" fromLane="0" toLane="0" dir="l" state="M"/>
    <connection from=":J1_2" to="e4" fromLane="0" toLane="0" via=":J1_10_0" dir="t" state="m"/>
    <connection from=":J1_10" to="e4" fromLane="0" toLane="0" dir="t" state="M"/>
    <connection from=":J1_3" to="e4" fromLane="0" toLane="0" dir="r" state="M"/>
    <connection from=":J1_4" to="e3" fromLane="0" toLane="0" dir="l" state="M"/>
    <connection from=":J1_5" to="e5" fromLane="0" toLane="0" via=":J1_11_0" dir="t" state="m"/>
    <connection from=":J1_11" to="e5" fromLane="0" toLane="0" dir="t" state="M"/>
    <connection from=":J1_6" to="e5" fromLane="0" toLane="0" dir="r" state="M"/>
    <connection from=":J1_7" to="e4" fromLane="0" toLane="0" dir="s" state="M"/>
    <connection from=":J1_8" to="e3" fromLane="0" toLane="0" via=":J1_12_0" dir="t" state="m"/>
    <connection from=":J1_12" to="e3" fromLane="0" toLane="0" dir="t" state="M"/>
    <connection from=":J2_0" to="e1" fromLane="0" toLane="0" dir="t" state="M"/>
    <connection from=":J3_0" to="e2" fromLane="0" toLane="0" dir="t" state="M"/>

</net>
