<nodes xmlns:xsi="http://www.w3.org/2001/XMLSchema-instance" xsi:noNamespaceSchemaLocation="http://sumo.dlr.de/xsd/nodes_file.xsd">
    <node id="J0" x="0" y="50" type="priority"/>
    <node id="J1" x="50" y="50" type="traffic_light"/>
    <node id="J2" x="100" y="50" type="priority"/>
    <node id="J3" x="50" y="0" type="priority"/>
</nodes>